!_TAG_FILE_FORMAT	2	/extended format; --format=1 will not append ;" to lines/
!_TAG_FILE_SORTED	0	/0=unsorted, 1=sorted, 2=foldcase/
!_TAG_PROGRAM_AUTHOR	Darren Hiebert	/dhiebert@users.sourceforge.net/
!_TAG_PROGRAM_NAME	Exuberant Ctags	//
!_TAG_PROGRAM_URL	http://ctags.sourceforge.net	/official site/
!_TAG_PROGRAM_VERSION	5.8	//
Learn.co Educational Content License	/Users/manon/Development/code/rails-dynamic-request-lab-london-web-career-031119/LICENSE.md	/^#Learn.co Educational Content License$/;"	function	line:1
Student	/Users/manon/Development/code/rails-dynamic-request-lab-london-web-career-031119/app/models/student.rb	/^class Student < ActiveRecord::Base$/;"	class	line:1
to_s	/Users/manon/Development/code/rails-dynamic-request-lab-london-web-career-031119/app/models/student.rb	/^  def to_s$/;"	method	line:2	class:Student
ApplicationController	/Users/manon/Development/code/rails-dynamic-request-lab-london-web-career-031119/app/controllers/application_controller.rb	/^class ApplicationController < ActionController::Base$/;"	class	line:1
StudentsController	/Users/manon/Development/code/rails-dynamic-request-lab-london-web-career-031119/app/controllers/students_controller.rb	/^class StudentsController < ApplicationController$/;"	class	line:1
index	/Users/manon/Development/code/rails-dynamic-request-lab-london-web-career-031119/app/controllers/students_controller.rb	/^  def index$/;"	method	line:2	class:StudentsController
* Any CSS and SCSS file within this directory, lib/assets/stylesheets, vendor/assets/stylesheets	/Users/manon/Development/code/rails-dynamic-request-lab-london-web-career-031119/app/assets/stylesheets/application.css	/^ * Any CSS and SCSS file within this directory, lib\/assets\/stylesheets, vendor\/assets\/stylesheets,$/;"	function	line:5
ApplicationHelper	/Users/manon/Development/code/rails-dynamic-request-lab-london-web-career-031119/app/helpers/application_helper.rb	/^module ApplicationHelper$/;"	module	line:1
system!	/Users/manon/Development/code/rails-dynamic-request-lab-london-web-career-031119/bin/update	/^def system!(*args)$/;"	method	line:9
system!	/Users/manon/Development/code/rails-dynamic-request-lab-london-web-career-031119/bin/setup	/^def system!(*args)$/;"	method	line:9
development	/Users/manon/Development/code/rails-dynamic-request-lab-london-web-career-031119/config/secrets.yml	/^development:$/;"	function	line:13
secret_key_base	/Users/manon/Development/code/rails-dynamic-request-lab-london-web-career-031119/config/secrets.yml	/^  secret_key_base: e21fd769b41b4027f937181a909db239b3dc1724a28e64cce1d782a00b87f66d60a5003588c045cc8f6d723ddad7c7b8fd51cac2ac9c48fa7a2cdafa3af5865f$/;"	function	line:14
test	/Users/manon/Development/code/rails-dynamic-request-lab-london-web-career-031119/config/secrets.yml	/^test:$/;"	function	line:16
secret_key_base	/Users/manon/Development/code/rails-dynamic-request-lab-london-web-career-031119/config/secrets.yml	/^  secret_key_base: 5e89e2ee721fc4369d484578622a01e7247021023f773b951345321b4b0ea355d8385af09cd44ecb81f8eb74435971ffba365af0fd9ee80a2094c1ff796ebb33$/;"	function	line:17
production	/Users/manon/Development/code/rails-dynamic-request-lab-london-web-career-031119/config/secrets.yml	/^production:$/;"	function	line:21
secret_key_base	/Users/manon/Development/code/rails-dynamic-request-lab-london-web-career-031119/config/secrets.yml	/^  secret_key_base: <%= ENV["SECRET_KEY_BASE"] %>$/;"	function	line:22
en	/Users/manon/Development/code/rails-dynamic-request-lab-london-web-career-031119/config/locales/en.yml	/^en:$/;"	function	line:22
hello	/Users/manon/Development/code/rails-dynamic-request-lab-london-web-career-031119/config/locales/en.yml	/^  hello: "Hello world"$/;"	function	line:23
development	/Users/manon/Development/code/rails-dynamic-request-lab-london-web-career-031119/config/cable.yml	/^development:$/;"	function	line:1
adapter	/Users/manon/Development/code/rails-dynamic-request-lab-london-web-career-031119/config/cable.yml	/^  adapter: async$/;"	function	line:2
test	/Users/manon/Development/code/rails-dynamic-request-lab-london-web-career-031119/config/cable.yml	/^test:$/;"	function	line:4
adapter	/Users/manon/Development/code/rails-dynamic-request-lab-london-web-career-031119/config/cable.yml	/^  adapter: async$/;"	function	line:5
production	/Users/manon/Development/code/rails-dynamic-request-lab-london-web-career-031119/config/cable.yml	/^production:$/;"	function	line:7
adapter	/Users/manon/Development/code/rails-dynamic-request-lab-london-web-career-031119/config/cable.yml	/^  adapter: redis$/;"	function	line:8
url	/Users/manon/Development/code/rails-dynamic-request-lab-london-web-career-031119/config/cable.yml	/^  url: redis:\/\/localhost:6379\/1$/;"	function	line:9
Arlab	/Users/manon/Development/code/rails-dynamic-request-lab-london-web-career-031119/config/application.rb	/^module Arlab$/;"	module	line:9
Application	/Users/manon/Development/code/rails-dynamic-request-lab-london-web-career-031119/config/application.rb	/^  class Application < Rails::Application$/;"	class	line:10	class:Arlab
default	/Users/manon/Development/code/rails-dynamic-request-lab-london-web-career-031119/config/database.yml	/^default: &default$/;"	function	line:7
adapter	/Users/manon/Development/code/rails-dynamic-request-lab-london-web-career-031119/config/database.yml	/^  adapter: sqlite3$/;"	function	line:8
pool	/Users/manon/Development/code/rails-dynamic-request-lab-london-web-career-031119/config/database.yml	/^  pool: 5$/;"	function	line:9
timeout	/Users/manon/Development/code/rails-dynamic-request-lab-london-web-career-031119/config/database.yml	/^  timeout: 5000$/;"	function	line:10
development	/Users/manon/Development/code/rails-dynamic-request-lab-london-web-career-031119/config/database.yml	/^development:$/;"	function	line:12
database	/Users/manon/Development/code/rails-dynamic-request-lab-london-web-career-031119/config/database.yml	/^  database: db\/development.sqlite3$/;"	function	line:14
test	/Users/manon/Development/code/rails-dynamic-request-lab-london-web-career-031119/config/database.yml	/^test:$/;"	function	line:19
database	/Users/manon/Development/code/rails-dynamic-request-lab-london-web-career-031119/config/database.yml	/^  database: db\/test.sqlite3$/;"	function	line:21
production	/Users/manon/Development/code/rails-dynamic-request-lab-london-web-career-031119/config/database.yml	/^production:$/;"	function	line:23
database	/Users/manon/Development/code/rails-dynamic-request-lab-london-web-career-031119/config/database.yml	/^  database: db\/production.sqlite3$/;"	function	line:25
Rails Dynamic Request Lab	/Users/manon/Development/code/rails-dynamic-request-lab-london-web-career-031119/README.md	/^# Rails Dynamic Request Lab$/;"	function	line:1
Objectives	/Users/manon/Development/code/rails-dynamic-request-lab-london-web-career-031119/README.md	/^## Objectives$/;"	function	line:4
Instructions	/Users/manon/Development/code/rails-dynamic-request-lab-london-web-career-031119/README.md	/^## Instructions$/;"	function	line:17
Keys to remember	/Users/manon/Development/code/rails-dynamic-request-lab-london-web-career-031119/README.md	/^## Keys to remember$/;"	function	line:28
Resources	/Users/manon/Development/code/rails-dynamic-request-lab-london-web-career-031119/README.md	/^## Resources$/;"	function	line:34
html	/Users/manon/Development/code/rails-dynamic-request-lab-london-web-career-031119/public/422.html	/^<html>$/;"	function	line:2
head	/Users/manon/Development/code/rails-dynamic-request-lab-london-web-career-031119/public/422.html	/^<head>$/;"	function	line:3
title	/Users/manon/Development/code/rails-dynamic-request-lab-london-web-career-031119/public/422.html	/^  <title>The change you wanted was rejected (422)<\/title>$/;"	function	line:4
meta	/Users/manon/Development/code/rails-dynamic-request-lab-london-web-career-031119/public/422.html	/^  <meta name="viewport" content="width=device-width,initial-scale=1">$/;"	function	line:5
style	/Users/manon/Development/code/rails-dynamic-request-lab-london-web-career-031119/public/422.html	/^  <style>$/;"	function	line:6
body	/Users/manon/Development/code/rails-dynamic-request-lab-london-web-career-031119/public/422.html	/^<body>$/;"	function	line:57
div	/Users/manon/Development/code/rails-dynamic-request-lab-london-web-career-031119/public/422.html	/^  <div class="dialog">$/;"	function	line:59
div	/Users/manon/Development/code/rails-dynamic-request-lab-london-web-career-031119/public/422.html	/^    <div>$/;"	function	line:60
h	/Users/manon/Development/code/rails-dynamic-request-lab-london-web-career-031119/public/422.html	/^      <h1>The change you wanted was rejected.<\/h1>$/;"	function	line:61
p	/Users/manon/Development/code/rails-dynamic-request-lab-london-web-career-031119/public/422.html	/^      <p>Maybe you tried to change something you didn't have access to.<\/p>$/;"	function	line:62
p	/Users/manon/Development/code/rails-dynamic-request-lab-london-web-career-031119/public/422.html	/^    <p>If you are the application owner check the logs for more information.<\/p>$/;"	function	line:64
html	/Users/manon/Development/code/rails-dynamic-request-lab-london-web-career-031119/public/500.html	/^<html>$/;"	function	line:2
head	/Users/manon/Development/code/rails-dynamic-request-lab-london-web-career-031119/public/500.html	/^<head>$/;"	function	line:3
title	/Users/manon/Development/code/rails-dynamic-request-lab-london-web-career-031119/public/500.html	/^  <title>We're sorry, but something went wrong (500)<\/title>$/;"	function	line:4
meta	/Users/manon/Development/code/rails-dynamic-request-lab-london-web-career-031119/public/500.html	/^  <meta name="viewport" content="width=device-width,initial-scale=1">$/;"	function	line:5
style	/Users/manon/Development/code/rails-dynamic-request-lab-london-web-career-031119/public/500.html	/^  <style>$/;"	function	line:6
body	/Users/manon/Development/code/rails-dynamic-request-lab-london-web-career-031119/public/500.html	/^<body>$/;"	function	line:57
div	/Users/manon/Development/code/rails-dynamic-request-lab-london-web-career-031119/public/500.html	/^  <div class="dialog">$/;"	function	line:59
div	/Users/manon/Development/code/rails-dynamic-request-lab-london-web-career-031119/public/500.html	/^    <div>$/;"	function	line:60
h	/Users/manon/Development/code/rails-dynamic-request-lab-london-web-career-031119/public/500.html	/^      <h1>We're sorry, but something went wrong.<\/h1>$/;"	function	line:61
p	/Users/manon/Development/code/rails-dynamic-request-lab-london-web-career-031119/public/500.html	/^    <p>If you are the application owner check the logs for more information.<\/p>$/;"	function	line:63
html	/Users/manon/Development/code/rails-dynamic-request-lab-london-web-career-031119/public/404.html	/^<html>$/;"	function	line:2
head	/Users/manon/Development/code/rails-dynamic-request-lab-london-web-career-031119/public/404.html	/^<head>$/;"	function	line:3
title	/Users/manon/Development/code/rails-dynamic-request-lab-london-web-career-031119/public/404.html	/^  <title>The page you were looking for doesn't exist (404)<\/title>$/;"	function	line:4
meta	/Users/manon/Development/code/rails-dynamic-request-lab-london-web-career-031119/public/404.html	/^  <meta name="viewport" content="width=device-width,initial-scale=1">$/;"	function	line:5
style	/Users/manon/Development/code/rails-dynamic-request-lab-london-web-career-031119/public/404.html	/^  <style>$/;"	function	line:6
body	/Users/manon/Development/code/rails-dynamic-request-lab-london-web-career-031119/public/404.html	/^<body>$/;"	function	line:57
div	/Users/manon/Development/code/rails-dynamic-request-lab-london-web-career-031119/public/404.html	/^  <div class="dialog">$/;"	function	line:59
div	/Users/manon/Development/code/rails-dynamic-request-lab-london-web-career-031119/public/404.html	/^    <div>$/;"	function	line:60
h	/Users/manon/Development/code/rails-dynamic-request-lab-london-web-career-031119/public/404.html	/^      <h1>The page you were looking for doesn't exist.<\/h1>$/;"	function	line:61
p	/Users/manon/Development/code/rails-dynamic-request-lab-london-web-career-031119/public/404.html	/^      <p>You may have mistyped the address or the page may have moved.<\/p>$/;"	function	line:62
p	/Users/manon/Development/code/rails-dynamic-request-lab-london-web-career-031119/public/404.html	/^    <p>If you are the application owner check the logs for more information.<\/p>$/;"	function	line:64
Contributing to Learn.co Curriculum	/Users/manon/Development/code/rails-dynamic-request-lab-london-web-career-031119/CONTRIBUTING.md	/^# Contributing to Learn.co Curriculum$/;"	function	line:1
Raising an Issue to Encourage a Contribution	/Users/manon/Development/code/rails-dynamic-request-lab-london-web-career-031119/CONTRIBUTING.md	/^## Raising an Issue to Encourage a Contribution$/;"	function	line:5
Submitting a Pull Request to Suggest an Improvement	/Users/manon/Development/code/rails-dynamic-request-lab-london-web-career-031119/CONTRIBUTING.md	/^## Submitting a Pull Request to Suggest an Improvement$/;"	function	line:13
Why Contribute?	/Users/manon/Development/code/rails-dynamic-request-lab-london-web-career-031119/CONTRIBUTING.md	/^# Why Contribute?$/;"	function	line:25
CreateStudents	/Users/manon/Development/code/rails-dynamic-request-lab-london-web-career-031119/db/migrate/001_create_students.rb	/^class CreateStudents < ActiveRecord::Migration$/;"	class	line:1
change	/Users/manon/Development/code/rails-dynamic-request-lab-london-web-career-031119/db/migrate/001_create_students.rb	/^  def change$/;"	method	line:2	class:CreateStudents
